<?xml version="1.0" encoding="UTF-8"?>

<!-- generated on 2025-07-05 21:56:45.370389 by randomTrips.py v1_22_0+0002-63e50f52594
<configuration>
    <net-file value="cfg\Jakhospital.net.xml"/>
    <route-file value="cfg\output.trips3.xml"/>
    <prefix value="motor"/>
    <trip-attributes value="type=&quot;motor&quot; departSpeed=&quot;max&quot; departLane=&quot;best&quot;"/>
    <length value="True"/>
    <fringe-factor value="1"/>
    <seed value="30"/>
    <min-distance value="1000.0"/>
    <max-distance value="500000.0"/>
    <validate value="True"/>
    <end value="109.0"/>
    <period value="0.1"/>
</configuration>
-->

<!-- generated on 2025-07-05 21:56:39 by Eclipse SUMO duarouter Version 1.22.0
<duarouterConfiguration xmlns:xsi="http://www.w3.org/2001/XMLSchema-instance" xsi:noNamespaceSchemaLocation="http://sumo.dlr.de/xsd/duarouterConfiguration.xsd">

    <input>
        <net-file value="cfg\Jakhospital.net.xml"/>
        <route-files value="trips.trips.xml"/>
    </input>

    <output>
        <output-file value="trips.trips.xml.tmp"/>
        <alternatives-output value="NUL"/>
        <write-trips value="true"/>
    </output>

    <time>
        <begin value="0.0"/>
        <end value="109.0"/>
    </time>

    <report>
        <no-warnings value="true"/>
        <ignore-errors value="true"/>
        <no-step-log value="true"/>
    </report>

</duarouterConfiguration>
-->

<routes xmlns:xsi="http://www.w3.org/2001/XMLSchema-instance" xsi:noNamespaceSchemaLocation="http://sumo.dlr.de/xsd/routes_file.xsd">
    <trip id="motor0" type="motor" depart="0.00" departLane="best" departSpeed="max" from="228032109#5" to="-517958773#1"/>
    <trip id="motor1" type="motor" depart="0.10" departLane="best" departSpeed="max" from="-1228053522#0" to="31732484#0"/>
    <trip id="motor2" type="motor" depart="0.20" departLane="best" departSpeed="max" from="-31815348#2" to="-508069777"/>
    <trip id="motor3" type="motor" depart="0.30" departLane="best" departSpeed="max" from="-735458805#6" to="311563499"/>
    <trip id="motor4" type="motor" depart="0.40" departLane="best" departSpeed="max" from="970783838" to="1242310882"/>
    <trip id="motor5" type="motor" depart="0.50" departLane="best" departSpeed="max" from="985052699#0" to="985025911"/>
    <trip id="motor6" type="motor" depart="0.60" departLane="best" departSpeed="max" from="-482171381" to="-158978982"/>
    <trip id="motor7" type="motor" depart="0.70" departLane="best" departSpeed="max" from="-29980859#0" to="521701868#1"/>
    <trip id="motor8" type="motor" depart="0.80" departLane="best" departSpeed="max" from="28378092" to="686621799"/>
    <trip id="motor9" type="motor" depart="0.90" departLane="best" departSpeed="max" from="799846430" to="31732488#1"/>
    <trip id="motor11" type="motor" depart="1.10" departLane="best" departSpeed="max" from="31719001" to="508069819"/>
    <trip id="motor12" type="motor" depart="1.20" departLane="best" departSpeed="max" from="27979402#3" to="31780288"/>
    <trip id="motor13" type="motor" depart="1.30" departLane="best" departSpeed="max" from="29977851#0" to="648926577#4"/>
    <trip id="motor14" type="motor" depart="1.40" departLane="best" departSpeed="max" from="-27990076#1" to="158828005#2"/>
    <trip id="motor15" type="motor" depart="1.50" departLane="best" departSpeed="max" from="-520201742#1" to="521149108"/>
    <trip id="motor16" type="motor" depart="1.60" departLane="best" departSpeed="max" from="571167597" to="-500869921#1"/>
    <trip id="motor17" type="motor" depart="1.70" departLane="best" departSpeed="max" from="-158979050#3" to="-487638526#0"/>
    <trip id="motor18" type="motor" depart="1.80" departLane="best" departSpeed="max" from="-520201864#1" to="508585344"/>
    <trip id="motor19" type="motor" depart="1.90" departLane="best" departSpeed="max" from="-758734353" to="491751086#4"/>
    <trip id="motor20" type="motor" depart="2.00" departLane="best" departSpeed="max" from="-517959009" to="229082124#3"/>
    <trip id="motor21" type="motor" depart="2.10" departLane="best" departSpeed="max" from="-31756703" to="311574649#6"/>
    <trip id="motor22" type="motor" depart="2.20" departLane="best" departSpeed="max" from="158823960#1" to="571167531"/>
    <trip id="motor23" type="motor" depart="2.30" departLane="best" departSpeed="max" from="757022292" to="228545569#1"/>
    <trip id="motor24" type="motor" depart="2.40" departLane="best" departSpeed="max" from="-158823976#2" to="754504302"/>
    <trip id="motor25" type="motor" depart="2.50" departLane="best" departSpeed="max" from="756079664" to="1329007516"/>
    <trip id="motor26" type="motor" depart="2.60" departLane="best" departSpeed="max" from="1238100207#0" to="749326831"/>
    <trip id="motor27" type="motor" depart="2.70" departLane="best" departSpeed="max" from="-499839623#4" to="-508069749"/>
    <trip id="motor28" type="motor" depart="2.80" departLane="best" departSpeed="max" from="31769360#2" to="521149093#1"/>
    <trip id="motor29" type="motor" depart="2.90" departLane="best" departSpeed="max" from="158823954#1" to="1042166734"/>
    <trip id="motor30" type="motor" depart="3.00" departLane="best" departSpeed="max" from="-32096568#8" to="-318973800#1"/>
    <trip id="motor31" type="motor" depart="3.10" departLane="best" departSpeed="max" from="-571584717" to="1108600919"/>
    <trip id="motor32" type="motor" depart="3.20" departLane="best" departSpeed="max" from="32122514" to="29978215"/>
    <trip id="motor33" type="motor" depart="3.30" departLane="best" departSpeed="max" from="158810196#0" to="-756940468"/>
    <trip id="motor34" type="motor" depart="3.40" departLane="best" departSpeed="max" from="29051002#1" to="-757301233#0"/>
    <trip id="motor35" type="motor" depart="3.50" departLane="best" departSpeed="max" from="31780283" to="-738403832#0"/>
    <trip id="motor36" type="motor" depart="3.60" departLane="best" departSpeed="max" from="158827996#1" to="352050878#2"/>
    <trip id="motor37" type="motor" depart="3.70" departLane="best" departSpeed="max" from="759671552#1" to="27794689#1"/>
    <trip id="motor38" type="motor" depart="3.80" departLane="best" departSpeed="max" from="-521149040#1" to="31825099#1"/>
    <trip id="motor39" type="motor" depart="3.90" departLane="best" departSpeed="max" from="-28259973#2" to="-567290515#1"/>
    <trip id="motor40" type="motor" depart="4.00" departLane="best" departSpeed="max" from="-499839623#7" to="-761982499#1"/>
    <trip id="motor41" type="motor" depart="4.10" departLane="best" departSpeed="max" from="508585295#1" to="311484878#1"/>
    <trip id="motor42" type="motor" depart="4.20" departLane="best" departSpeed="max" from="-1232246145" to="1211887353#0"/>
    <trip id="motor43" type="motor" depart="4.30" departLane="best" departSpeed="max" from="-1052981026" to="520229481#2"/>
    <trip id="motor45" type="motor" depart="4.50" departLane="best" departSpeed="max" from="-508069826#1" to="520229477"/>
    <trip id="motor46" type="motor" depart="4.60" departLane="best" departSpeed="max" from="-29042851#2" to="571234562"/>
    <trip id="motor47" type="motor" depart="4.70" departLane="best" departSpeed="max" from="-685681901#0" to="-158978993#0"/>
    <trip id="motor48" type="motor" depart="4.80" departLane="best" departSpeed="max" from="653110616#1" to="521454816"/>
    <trip id="motor49" type="motor" depart="4.90" departLane="best" departSpeed="max" from="-31768563#3" to="28378019"/>
    <trip id="motor50" type="motor" depart="5.00" departLane="best" departSpeed="max" from="1215109036" to="-29061419#15"/>
    <trip id="motor51" type="motor" depart="5.10" departLane="best" departSpeed="max" from="-913796711" to="894694681#1"/>
    <trip id="motor52" type="motor" depart="5.20" departLane="best" departSpeed="max" from="-650420717#4" to="500870057"/>
    <trip id="motor53" type="motor" depart="5.30" departLane="best" departSpeed="max" from="482392245#1" to="508585339#1"/>
    <trip id="motor54" type="motor" depart="5.40" departLane="best" departSpeed="max" from="28419415" to="652163207"/>
    <trip id="motor55" type="motor" depart="5.50" departLane="best" departSpeed="max" from="-521771809#2" to="157359365#2"/>
    <trip id="motor56" type="motor" depart="5.60" departLane="best" departSpeed="max" from="1019913848" to="-27977104#1"/>
    <trip id="motor57" type="motor" depart="5.70" departLane="best" departSpeed="max" from="1256641821#0" to="508069799#1"/>
    <trip id="motor58" type="motor" depart="5.80" departLane="best" departSpeed="max" from="27989865" to="-311709954"/>
    <trip id="motor59" type="motor" depart="5.90" departLane="best" departSpeed="max" from="-482392244" to="158810156"/>
    <trip id="motor60" type="motor" depart="6.00" departLane="best" departSpeed="max" from="-27980926" to="-31780283"/>
    <trip id="motor61" type="motor" depart="6.10" departLane="best" departSpeed="max" from="32122512#3" to="-27985126#0"/>
    <trip id="motor62" type="motor" depart="6.20" departLane="best" departSpeed="max" from="-28198964#1" to="-30297293#1"/>
    <trip id="motor63" type="motor" depart="6.30" departLane="best" departSpeed="max" from="158824014#0" to="-1211905444"/>
    <trip id="motor64" type="motor" depart="6.40" departLane="best" departSpeed="max" from="31769499#2" to="28207367#0"/>
    <trip id="motor65" type="motor" depart="6.50" departLane="best" departSpeed="max" from="471493364" to="514380311"/>
    <trip id="motor67" type="motor" depart="6.70" departLane="best" departSpeed="max" from="-518511798#0" to="29020412#1"/>
    <trip id="motor68" type="motor" depart="6.80" departLane="best" departSpeed="max" from="-29068063#0" to="-32122509#2"/>
    <trip id="motor69" type="motor" depart="6.90" departLane="best" departSpeed="max" from="31810958#0" to="29020412#0"/>
    <trip id="motor70" type="motor" depart="7.00" departLane="best" departSpeed="max" from="-29020409#2" to="1211891108#1"/>
    <trip id="motor71" type="motor" depart="7.10" departLane="best" departSpeed="max" from="28378019" to="-32096568#7"/>
    <trip id="motor72" type="motor" depart="7.20" departLane="best" departSpeed="max" from="310390586#1" to="-29061420#2"/>
    <trip id="motor73" type="motor" depart="7.30" departLane="best" departSpeed="max" from="-310390608" to="1000428420"/>
    <trip id="motor74" type="motor" depart="7.40" departLane="best" departSpeed="max" from="-514672226#1" to="32220487#0"/>
    <trip id="motor75" type="motor" depart="7.50" departLane="best" departSpeed="max" from="-761225896" to="-517958810#0"/>
    <trip id="motor76" type="motor" depart="7.60" departLane="best" departSpeed="max" from="517958892#0" to="521454707"/>
    <trip id="motor77" type="motor" depart="7.70" departLane="best" departSpeed="max" from="499839623#2" to="-28298387#5"/>
    <trip id="motor78" type="motor" depart="7.80" departLane="best" departSpeed="max" from="-508585427" to="-27962209#1"/>
    <trip id="motor79" type="motor" depart="7.90" departLane="best" departSpeed="max" from="353497715#1" to="1254728130#0"/>
    <trip id="motor80" type="motor" depart="8.00" departLane="best" departSpeed="max" from="-27959239#2" to="752884006#2"/>
    <trip id="motor81" type="motor" depart="8.10" departLane="best" departSpeed="max" from="-158978980#5" to="-1281432977#0"/>
    <trip id="motor82" type="motor" depart="8.20" departLane="best" departSpeed="max" from="644735747#6" to="1230877022"/>
    <trip id="motor83" type="motor" depart="8.30" departLane="best" departSpeed="max" from="521569936#0" to="28418891#0"/>
    <trip id="motor84" type="motor" depart="8.40" departLane="best" departSpeed="max" from="-288864541#2" to="157361689#5"/>
    <trip id="motor85" type="motor" depart="8.50" departLane="best" departSpeed="max" from="484661227#5" to="-1164048499"/>
    <trip id="motor86" type="motor" depart="8.60" departLane="best" departSpeed="max" from="500869921#2" to="-571865071"/>
    <trip id="motor87" type="motor" depart="8.70" departLane="best" departSpeed="max" from="508585305" to="158810151"/>
    <trip id="motor88" type="motor" depart="8.80" departLane="best" departSpeed="max" from="1053213729#1" to="-158823956#2"/>
    <trip id="motor89" type="motor" depart="8.90" departLane="best" departSpeed="max" from="32091598#0" to="-311563507#3"/>
    <trip id="motor90" type="motor" depart="9.00" departLane="best" departSpeed="max" from="28412539#1" to="-1050726220"/>
    <trip id="motor91" type="motor" depart="9.10" departLane="best" departSpeed="max" from="-27982943#1" to="310390586#1"/>
    <trip id="motor92" type="motor" depart="9.20" departLane="best" departSpeed="max" from="-514473363" to="28819896"/>
    <trip id="motor93" type="motor" depart="9.30" departLane="best" departSpeed="max" from="31779923#1" to="-573007836#1"/>
    <trip id="motor94" type="motor" depart="9.40" departLane="best" departSpeed="max" from="202084399" to="-761220728"/>
    <trip id="motor95" type="motor" depart="9.50" departLane="best" departSpeed="max" from="-1240624226" to="521752435"/>
    <trip id="motor96" type="motor" depart="9.60" departLane="best" departSpeed="max" from="18565483#0" to="571234576#2"/>
    <trip id="motor97" type="motor" depart="9.70" departLane="best" departSpeed="max" from="29977856#0" to="310898619"/>
    <trip id="motor98" type="motor" depart="9.80" departLane="best" departSpeed="max" from="-27989881#1" to="29978221"/>
    <trip id="motor99" type="motor" depart="9.90" departLane="best" departSpeed="max" from="-935206178" to="-514494184"/>
    <trip id="motor100" type="motor" depart="10.00" departLane="best" departSpeed="max" from="-28137368#1" to="-31606518#4"/>
    <trip id="motor101" type="motor" depart="10.10" departLane="best" departSpeed="max" from="-158823992#0" to="31758713#7"/>
    <trip id="motor102" type="motor" depart="10.20" departLane="best" departSpeed="max" from="-908328831" to="-28416101#5"/>
    <trip id="motor103" type="motor" depart="10.30" departLane="best" departSpeed="max" from="27980736#3" to="571542202#0"/>
    <trip id="motor104" type="motor" depart="10.40" departLane="best" departSpeed="max" from="696177725" to="-158979057#5"/>
    <trip id="motor105" type="motor" depart="10.50" departLane="best" departSpeed="max" from="29042859#6" to="29170690"/>
    <trip id="motor106" type="motor" depart="10.60" departLane="best" departSpeed="max" from="1228067737" to="-736668276#1"/>
    <trip id="motor107" type="motor" depart="10.70" departLane="best" departSpeed="max" from="1160378591" to="-571542080#1"/>
    <trip id="motor108" type="motor" depart="10.80" departLane="best" departSpeed="max" from="31780278#1" to="531919725#0"/>
    <trip id="motor109" type="motor" depart="10.90" departLane="best" departSpeed="max" from="778426882#3" to="-746877656"/>
    <trip id="motor110" type="motor" depart="11.00" departLane="best" departSpeed="max" from="-32221250#2" to="-500869973#0"/>
    <trip id="motor111" type="motor" depart="11.10" departLane="best" departSpeed="max" from="-1211828214#0" to="31779861#4"/>
    <trip id="motor112" type="motor" depart="11.20" departLane="best" departSpeed="max" from="523574268" to="32080638#0"/>
    <trip id="motor113" type="motor" depart="11.30" departLane="best" departSpeed="max" from="29061434#1" to="508585287#0"/>
    <trip id="motor114" type="motor" depart="11.40" departLane="best" departSpeed="max" from="28418891#14" to="521149044#2"/>
    <trip id="motor115" type="motor" depart="11.50" departLane="best" departSpeed="max" from="28419178" to="-32122462#7"/>
    <trip id="motor116" type="motor" depart="11.60" departLane="best" departSpeed="max" from="-158823993" to="755059774#1"/>
    <trip id="motor117" type="motor" depart="11.70" departLane="best" departSpeed="max" from="-28137368#3" to="27959562"/>
    <trip id="motor118" type="motor" depart="11.80" departLane="best" departSpeed="max" from="571167542" to="521454849"/>
    <trip id="motor119" type="motor" depart="11.90" departLane="best" departSpeed="max" from="375334648#4" to="-1301524077#0"/>
    <trip id="motor120" type="motor" depart="12.00" departLane="best" departSpeed="max" from="-1231140841" to="229062372#25"/>
    <trip id="motor121" type="motor" depart="12.10" departLane="best" departSpeed="max" from="-27960100" to="-32096572"/>
    <trip id="motor122" type="motor" depart="12.20" departLane="best" departSpeed="max" from="-500869889#0" to="517958810#1"/>
    <trip id="motor123" type="motor" depart="12.30" departLane="best" departSpeed="max" from="571496713#0" to="571542174#1"/>
    <trip id="motor124" type="motor" depart="12.40" departLane="best" departSpeed="max" from="-31606518#4" to="998299038"/>
    <trip id="motor125" type="motor" depart="12.50" departLane="best" departSpeed="max" from="-531919730#0" to="32091598#2"/>
    <trip id="motor126" type="motor" depart="12.60" departLane="best" departSpeed="max" from="508585336" to="-32122509#2"/>
    <trip id="motor127" type="motor" depart="12.70" departLane="best" departSpeed="max" from="676440417#2" to="29978123#2"/>
    <trip id="motor128" type="motor" depart="12.80" departLane="best" departSpeed="max" from="31780158#14" to="-716596806"/>
    <trip id="motor129" type="motor" depart="12.90" departLane="best" departSpeed="max" from="32122333#1" to="-31779924#2"/>
    <trip id="motor130" type="motor" depart="13.00" departLane="best" departSpeed="max" from="-521454832" to="32091598#4"/>
    <trip id="motor131" type="motor" depart="13.10" departLane="best" departSpeed="max" from="531922818#0" to="28207763#2"/>
    <trip id="motor132" type="motor" depart="13.20" departLane="best" departSpeed="max" from="27984322#0" to="-158828030#0"/>
    <trip id="motor133" type="motor" depart="13.30" departLane="best" departSpeed="max" from="1227886404#1" to="-31813335"/>
    <trip id="motor134" type="motor" depart="13.40" departLane="best" departSpeed="max" from="-517958341" to="-877750849#0"/>
    <trip id="motor135" type="motor" depart="13.50" departLane="best" departSpeed="max" from="1311155777" to="-521742235#0"/>
    <trip id="motor136" type="motor" depart="13.60" departLane="best" departSpeed="max" from="1212436820" to="934183235#1"/>
    <trip id="motor137" type="motor" depart="13.70" departLane="best" departSpeed="max" from="28419415" to="28275388"/>
    <trip id="motor138" type="motor" depart="13.80" departLane="best" departSpeed="max" from="29068066#0" to="1037050257"/>
    <trip id="motor139" type="motor" depart="13.90" departLane="best" departSpeed="max" from="-29020416" to="-311563500#0"/>
    <trip id="motor140" type="motor" depart="14.00" departLane="best" departSpeed="max" from="-1038193968" to="-518511822#2"/>
    <trip id="motor141" type="motor" depart="14.10" departLane="best" departSpeed="max" from="-696197426" to="27959606#1"/>
    <trip id="motor142" type="motor" depart="14.20" departLane="best" departSpeed="max" from="521742231#5" to="-158810209#1"/>
    <trip id="motor143" type="motor" depart="14.30" departLane="best" departSpeed="max" from="-29046550#1" to="-1232543755"/>
    <trip id="motor144" type="motor" depart="14.40" departLane="best" departSpeed="max" from="-1163815876" to="-521454816"/>
    <trip id="motor145" type="motor" depart="14.50" departLane="best" departSpeed="max" from="-500869889#0" to="-311470584#0"/>
    <trip id="motor146" type="motor" depart="14.60" departLane="best" departSpeed="max" from="-837189444" to="-18770220#0"/>
    <trip id="motor147" type="motor" depart="14.70" departLane="best" departSpeed="max" from="-29980859#1" to="-510923532"/>
    <trip id="motor148" type="motor" depart="14.80" departLane="best" departSpeed="max" from="-517958914" to="1223393506#0"/>
    <trip id="motor149" type="motor" depart="14.90" departLane="best" departSpeed="max" from="-518511803" to="-998841382#1"/>
    <trip id="motor150" type="motor" depart="15.00" departLane="best" departSpeed="max" from="-28378162" to="776109194#2"/>
    <trip id="motor151" type="motor" depart="15.10" departLane="best" departSpeed="max" from="521149077" to="-28207300#1"/>
    <trip id="motor152" type="motor" depart="15.20" departLane="best" departSpeed="max" from="508585356" to="311574618"/>
    <trip id="motor153" type="motor" depart="15.30" departLane="best" departSpeed="max" from="521771808" to="685173858#3"/>
    <trip id="motor154" type="motor" depart="15.40" departLane="best" departSpeed="max" from="27974179" to="311574653"/>
    <trip id="motor155" type="motor" depart="15.50" departLane="best" departSpeed="max" from="-757329587" to="837189444"/>
    <trip id="motor156" type="motor" depart="15.60" departLane="best" departSpeed="max" from="1244163903" to="-800596338#1"/>
    <trip id="motor157" type="motor" depart="15.70" departLane="best" departSpeed="max" from="499839623#7" to="158978994#1"/>
    <trip id="motor158" type="motor" depart="15.80" departLane="best" departSpeed="max" from="-761227350" to="-573007830#0"/>
    <trip id="motor159" type="motor" depart="15.90" departLane="best" departSpeed="max" from="485048163" to="-521441421#1"/>
    <trip id="motor160" type="motor" depart="16.00" departLane="best" departSpeed="max" from="-684178992#2" to="31806399"/>
    <trip id="motor161" type="motor" depart="16.10" departLane="best" departSpeed="max" from="521149252#0" to="-1119755525#0"/>
    <trip id="motor162" type="motor" depart="16.20" departLane="best" departSpeed="max" from="650581195" to="27989659#2"/>
    <trip id="motor163" type="motor" depart="16.30" departLane="best" departSpeed="max" from="-158828013#1" to="1113185529"/>
    <trip id="motor164" type="motor" depart="16.40" departLane="best" departSpeed="max" from="-31719001" to="757338793"/>
    <trip id="motor165" type="motor" depart="16.50" departLane="best" departSpeed="max" from="-157359361#2" to="-571894886#0"/>
    <trip id="motor166" type="motor" depart="16.60" departLane="best" departSpeed="max" from="-310899872#0" to="158828011#1"/>
    <trip id="motor167" type="motor" depart="16.70" departLane="best" departSpeed="max" from="168337125" to="31769270#0"/>
    <trip id="motor168" type="motor" depart="16.80" departLane="best" departSpeed="max" from="1211838037" to="1341986513#1"/>
    <trip id="motor169" type="motor" depart="16.90" departLane="best" departSpeed="max" from="-228545569#5" to="-29060831#0"/>
    <trip id="motor170" type="motor" depart="17.00" departLane="best" departSpeed="max" from="-228545569#0" to="45822768"/>
    <trip id="motor171" type="motor" depart="17.10" departLane="best" departSpeed="max" from="32092920" to="-158979047#0"/>
    <trip id="motor172" type="motor" depart="17.20" departLane="best" departSpeed="max" from="-318965865#0" to="756800094#1"/>
    <trip id="motor173" type="motor" depart="17.30" departLane="best" departSpeed="max" from="32122282#1" to="-1100447316"/>
    <trip id="motor174" type="motor" depart="17.40" departLane="best" departSpeed="max" from="-980518241" to="685587237#4"/>
    <trip id="motor176" type="motor" depart="17.60" departLane="best" departSpeed="max" from="520201760" to="31758686"/>
    <trip id="motor177" type="motor" depart="17.70" departLane="best" departSpeed="max" from="759882820" to="520229430"/>
    <trip id="motor178" type="motor" depart="17.80" departLane="best" departSpeed="max" from="-168337524#1" to="166857002#4"/>
    <trip id="motor179" type="motor" depart="17.90" departLane="best" departSpeed="max" from="32122458#0" to="521750008#0"/>
    <trip id="motor180" type="motor" depart="18.00" departLane="best" departSpeed="max" from="508069759" to="514671304"/>
    <trip id="motor181" type="motor" depart="18.10" departLane="best" departSpeed="max" from="-32096450#4" to="1211905452"/>
    <trip id="motor182" type="motor" depart="18.20" departLane="best" departSpeed="max" from="-32122314#11" to="736922242"/>
    <trip id="motor183" type="motor" depart="18.30" departLane="best" departSpeed="max" from="971532148" to="-757032641"/>
    <trip id="motor184" type="motor" depart="18.40" departLane="best" departSpeed="max" from="-571183135" to="-508585435#0"/>
    <trip id="motor185" type="motor" depart="18.50" departLane="best" departSpeed="max" from="-28207300#6" to="-158810147"/>
    <trip id="motor186" type="motor" depart="18.60" departLane="best" departSpeed="max" from="-27959662#0" to="759634690#1"/>
    <trip id="motor187" type="motor" depart="18.70" departLane="best" departSpeed="max" from="31813162#2" to="-514473368"/>
    <trip id="motor188" type="motor" depart="18.80" departLane="best" departSpeed="max" from="761814078" to="-158810175"/>
    <trip id="motor189" type="motor" depart="18.90" departLane="best" departSpeed="max" from="652141491" to="-158823956#0"/>
    <trip id="motor190" type="motor" depart="19.00" departLane="best" departSpeed="max" from="-520201734#0" to="-1219494358#0"/>
    <trip id="motor191" type="motor" depart="19.10" departLane="best" departSpeed="max" from="-987286329" to="31779924#0"/>
    <trip id="motor192" type="motor" depart="19.20" departLane="best" departSpeed="max" from="521745488" to="295465185"/>
    <trip id="motor193" type="motor" depart="19.30" departLane="best" departSpeed="max" from="-1228053524" to="157356484"/>
    <trip id="motor194" type="motor" depart="19.40" departLane="best" departSpeed="max" from="718249762#1" to="31720087#4"/>
    <trip id="motor195" type="motor" depart="19.50" departLane="best" departSpeed="max" from="-28378095" to="915335468"/>
    <trip id="motor196" type="motor" depart="19.60" departLane="best" departSpeed="max" from="-1046420838" to="761227351"/>
    <trip id="motor197" type="motor" depart="19.70" departLane="best" departSpeed="max" from="31779865#2" to="487638524#1"/>
    <trip id="motor198" type="motor" depart="19.80" departLane="best" departSpeed="max" from="520201760" to="758344311#1"/>
    <trip id="motor199" type="motor" depart="19.90" departLane="best" departSpeed="max" from="30299003#3" to="652039571"/>
    <trip id="motor200" type="motor" depart="20.00" departLane="best" departSpeed="max" from="-31780283" to="-29068064#4"/>
    <trip id="motor201" type="motor" depart="20.10" departLane="best" departSpeed="max" from="28419622#0" to="514671295"/>
    <trip id="motor202" type="motor" depart="20.20" departLane="best" departSpeed="max" from="514464760#1" to="-692222166"/>
    <trip id="motor203" type="motor" depart="20.30" departLane="best" departSpeed="max" from="-28207252#1" to="571542199#2"/>
    <trip id="motor204" type="motor" depart="20.40" departLane="best" departSpeed="max" from="-756597857" to="-521149195"/>
    <trip id="motor205" type="motor" depart="20.50" departLane="best" departSpeed="max" from="749989132#4" to="778513716#2"/>
    <trip id="motor206" type="motor" depart="20.60" departLane="best" departSpeed="max" from="1286868733" to="32091598#3"/>
    <trip id="motor207" type="motor" depart="20.70" departLane="best" departSpeed="max" from="28412522" to="-525856276#0"/>
    <trip id="motor208" type="motor" depart="20.80" departLane="best" departSpeed="max" from="685390239" to="32122487#3"/>
    <trip id="motor209" type="motor" depart="20.90" departLane="best" departSpeed="max" from="520201811#2" to="521454838#0"/>
    <trip id="motor210" type="motor" depart="21.00" departLane="best" departSpeed="max" from="521805491#0" to="-1051202187"/>
    <trip id="motor211" type="motor" depart="21.10" departLane="best" departSpeed="max" from="-571542264" to="-521454839"/>
    <trip id="motor212" type="motor" depart="21.20" departLane="best" departSpeed="max" from="-27961301" to="31758507#1"/>
    <trip id="motor213" type="motor" depart="21.30" departLane="best" departSpeed="max" from="29061421#2" to="521454838#1"/>
    <trip id="motor214" type="motor" depart="21.40" departLane="best" departSpeed="max" from="-510923514" to="571584693#2"/>
    <trip id="motor215" type="motor" depart="21.50" departLane="best" departSpeed="max" from="158823953#4" to="571167498"/>
    <trip id="motor216" type="motor" depart="21.60" departLane="best" departSpeed="max" from="803655494" to="517959125#1"/>
    <trip id="motor217" type="motor" depart="21.70" departLane="best" departSpeed="max" from="514464782#2" to="-31758569#1"/>
    <trip id="motor218" type="motor" depart="21.80" departLane="best" departSpeed="max" from="29061472" to="31779824#15"/>
    <trip id="motor219" type="motor" depart="21.90" departLane="best" departSpeed="max" from="975643005" to="31780361#1"/>
    <trip id="motor220" type="motor" depart="22.00" departLane="best" departSpeed="max" from="29050991" to="520201749"/>
    <trip id="motor221" type="motor" depart="22.10" departLane="best" departSpeed="max" from="-570890001" to="771305673"/>
    <trip id="motor222" type="motor" depart="22.20" departLane="best" departSpeed="max" from="-202367171#2" to="-1018731809"/>
    <trip id="motor223" type="motor" depart="22.30" departLane="best" departSpeed="max" from="1054594227" to="31823352#1"/>
    <trip id="motor224" type="motor" depart="22.40" departLane="best" departSpeed="max" from="-1211110420" to="761204952"/>
    <trip id="motor226" type="motor" depart="22.60" departLane="best" departSpeed="max" from="-1211892283" to="158828034#1"/>
    <trip id="motor227" type="motor" depart="22.70" departLane="best" departSpeed="max" from="-29068063#2" to="-30297293#1"/>
    <trip id="motor228" type="motor" depart="22.80" departLane="best" departSpeed="max" from="18058110#1" to="27961352"/>
    <trip id="motor229" type="motor" depart="22.90" departLane="best" departSpeed="max" from="-508585380#0" to="499839623#8"/>
    <trip id="motor230" type="motor" depart="23.00" departLane="best" departSpeed="max" from="-778513703#0" to="-1231152149"/>
    <trip id="motor231" type="motor" depart="23.10" departLane="best" departSpeed="max" from="-571496683" to="1228034103"/>
    <trip id="motor232" type="motor" depart="23.20" departLane="best" departSpeed="max" from="-514464811#0" to="-31779839#0"/>
    <trip id="motor233" type="motor" depart="23.30" departLane="best" departSpeed="max" from="-508585296" to="-28207947#4"/>